&NAMDOM
  DX = 0.1,
  NX = 100,
/

&NAMTIM
  DT = 0.01,
  NT = 1000,
/

&NAMCST
  G  = 9.81,
/

&NAMSWE
  HM = 1.,
  UM = 2.,
/
